400 
Atoms
C 1.06500000 0.61487804 0.00000000
C 1.77500000 1.84463411 0.00000000
C 3.19500000 1.84463411 0.00000000
C 3.90500000 0.61487804 0.00000000
C 1.06500000 3.07439018 0.00000000
C 1.77500000 4.30414626 0.00000000
C 3.19500000 4.30414626 0.00000000
C 3.90500000 3.07439018 0.00000000
C 1.06500000 5.53390233 0.00000000
C 1.77500000 6.76365840 0.00000000
C 3.19500000 6.76365840 0.00000000
C 3.90500000 5.53390233 0.00000000
C 1.06500000 7.99341448 0.00000000
C 1.77500000 9.22317055 0.00000000
C 3.19500000 9.22317055 0.00000000
C 3.90500000 7.99341448 0.00000000
C 1.06500000 10.45292662 0.00000000
C 1.77500000 11.68268270 0.00000000
C 3.19500000 11.68268270 0.00000000
C 3.90500000 10.45292662 0.00000000
C 1.06500000 12.91243877 0.00000000
C 1.77500000 14.14219484 0.00000000
C 3.19500000 14.14219484 0.00000000
C 3.90500000 12.91243877 0.00000000
C 1.06500000 15.37195092 0.00000000
C 1.77500000 16.60170699 0.00000000
C 3.19500000 16.60170699 0.00000000
C 3.90500000 15.37195092 0.00000000
C 1.06500000 17.83146306 0.00000000
C 1.77500000 19.06121914 0.00000000
C 3.19500000 19.06121914 0.00000000
C 3.90500000 17.83146306 0.00000000
C 1.06500000 20.29097521 0.00000000
C 1.77500000 21.52073128 0.00000000
C 3.19500000 21.52073128 0.00000000
C 3.90500000 20.29097521 0.00000000
C 1.06500000 22.75048736 0.00000000
C 1.77500000 23.98024343 0.00000000
C 3.19500000 23.98024343 0.00000000
C 3.90500000 22.75048736 0.00000000
C 5.32500000 0.61487804 0.00000000
C 6.03500000 1.84463411 0.00000000
C 7.45500000 1.84463411 0.00000000
C 8.16500000 0.61487804 0.00000000
C 5.32500000 3.07439018 0.00000000
C 6.03500000 4.30414626 0.00000000
C 7.45500000 4.30414626 0.00000000
C 8.16500000 3.07439018 0.00000000
C 5.32500000 5.53390233 0.00000000
C 6.03500000 6.76365840 0.00000000
C 7.45500000 6.76365840 0.00000000
C 8.16500000 5.53390233 0.00000000
C 5.32500000 7.99341448 0.00000000
C 6.03500000 9.22317055 0.00000000
C 7.45500000 9.22317055 0.00000000
C 8.16500000 7.99341448 0.00000000
C 5.32500000 10.45292662 0.00000000
C 6.03500000 11.68268270 0.00000000
C 7.45500000 11.68268270 0.00000000
C 8.16500000 10.45292662 0.00000000
C 5.32500000 12.91243877 0.00000000
C 6.03500000 14.14219484 0.00000000
C 7.45500000 14.14219484 0.00000000
C 8.16500000 12.91243877 0.00000000
C 5.32500000 15.37195092 0.00000000
C 6.03500000 16.60170699 0.00000000
C 7.45500000 16.60170699 0.00000000
C 8.16500000 15.37195092 0.00000000
C 5.32500000 17.83146306 0.00000000
C 6.03500000 19.06121914 0.00000000
C 7.45500000 19.06121914 0.00000000
C 8.16500000 17.83146306 0.00000000
C 5.32500000 20.29097521 0.00000000
C 6.03500000 21.52073128 0.00000000
C 7.45500000 21.52073128 0.00000000
C 8.16500000 20.29097521 0.00000000
C 5.32500000 22.75048736 0.00000000
C 6.03500000 23.98024343 0.00000000
C 7.45500000 23.98024343 0.00000000
C 8.16500000 22.75048736 0.00000000
C 9.58500000 0.61487804 0.00000000
C 10.29500000 1.84463411 0.00000000
C 11.71500000 1.84463411 0.00000000
C 12.42500000 0.61487804 0.00000000
C 9.58500000 3.07439018 0.00000000
C 10.29500000 4.30414626 0.00000000
C 11.71500000 4.30414626 0.00000000
C 12.42500000 3.07439018 0.00000000
C 9.58500000 5.53390233 0.00000000
C 10.29500000 6.76365840 0.00000000
C 11.71500000 6.76365840 0.00000000
C 12.42500000 5.53390233 0.00000000
C 9.58500000 7.99341448 0.00000000
C 10.29500000 9.22317055 0.00000000
C 11.71500000 9.22317055 0.00000000
C 12.42500000 7.99341448 0.00000000
C 9.58500000 10.45292662 0.00000000
C 10.29500000 11.68268270 0.00000000
C 11.71500000 11.68268270 0.00000000
C 12.42500000 10.45292662 0.00000000
C 9.58500000 12.91243877 0.00000000
C 10.29500000 14.14219484 0.00000000
C 11.71500000 14.14219484 0.00000000
C 12.42500000 12.91243877 0.00000000
C 9.58500000 15.37195092 0.00000000
C 10.29500000 16.60170699 0.00000000
C 11.71500000 16.60170699 0.00000000
C 12.42500000 15.37195092 0.00000000
C 9.58500000 17.83146306 0.00000000
C 10.29500000 19.06121914 0.00000000
C 11.71500000 19.06121914 0.00000000
C 12.42500000 17.83146306 0.00000000
C 9.58500000 20.29097521 0.00000000
C 10.29500000 21.52073128 0.00000000
C 11.71500000 21.52073128 0.00000000
C 12.42500000 20.29097521 0.00000000
C 9.58500000 22.75048736 0.00000000
C 10.29500000 23.98024343 0.00000000
C 11.71500000 23.98024343 0.00000000
C 12.42500000 22.75048736 0.00000000
C 13.84500000 0.61487804 0.00000000
C 14.55500000 1.84463411 0.00000000
C 15.97500000 1.84463411 0.00000000
C 16.68500000 0.61487804 0.00000000
C 13.84500000 3.07439018 0.00000000
C 14.55500000 4.30414626 0.00000000
C 15.97500000 4.30414626 0.00000000
C 16.68500000 3.07439018 0.00000000
C 13.84500000 5.53390233 0.00000000
C 14.55500000 6.76365840 0.00000000
C 15.97500000 6.76365840 0.00000000
C 16.68500000 5.53390233 0.00000000
C 13.84500000 7.99341448 0.00000000
C 14.55500000 9.22317055 0.00000000
C 15.97500000 9.22317055 0.00000000
C 16.68500000 7.99341448 0.00000000
C 13.84500000 10.45292662 0.00000000
C 14.55500000 11.68268270 0.00000000
C 15.97500000 11.68268270 0.00000000
C 16.68500000 10.45292662 0.00000000
C 13.84500000 12.91243877 0.00000000
C 14.55500000 14.14219484 0.00000000
C 15.97500000 14.14219484 0.00000000
C 16.68500000 12.91243877 0.00000000
C 13.84500000 15.37195092 0.00000000
C 14.55500000 16.60170699 0.00000000
C 15.97500000 16.60170699 0.00000000
C 16.68500000 15.37195092 0.00000000
C 13.84500000 17.83146306 0.00000000
C 14.55500000 19.06121914 0.00000000
C 15.97500000 19.06121914 0.00000000
C 16.68500000 17.83146306 0.00000000
C 13.84500000 20.29097521 0.00000000
C 14.55500000 21.52073128 0.00000000
C 15.97500000 21.52073128 0.00000000
C 16.68500000 20.29097521 0.00000000
C 13.84500000 22.75048736 0.00000000
C 14.55500000 23.98024343 0.00000000
C 15.97500000 23.98024343 0.00000000
C 16.68500000 22.75048736 0.00000000
C 18.10500000 0.61487804 0.00000000
C 18.81500000 1.84463411 0.00000000
C 20.23500000 1.84463411 0.00000000
C 20.94500000 0.61487804 0.00000000
C 18.10500000 3.07439018 0.00000000
C 18.81500000 4.30414626 0.00000000
C 20.23500000 4.30414626 0.00000000
C 20.94500000 3.07439018 0.00000000
C 18.10500000 5.53390233 0.00000000
C 18.81500000 6.76365840 0.00000000
C 20.23500000 6.76365840 0.00000000
C 20.94500000 5.53390233 0.00000000
C 18.10500000 7.99341448 0.00000000
C 18.81500000 9.22317055 0.00000000
C 20.23500000 9.22317055 0.00000000
C 20.94500000 7.99341448 0.00000000
C 18.10500000 10.45292662 0.00000000
C 18.81500000 11.68268270 0.00000000
C 20.23500000 11.68268270 0.00000000
C 20.94500000 10.45292662 0.00000000
C 18.10500000 12.91243877 0.00000000
C 18.81500000 14.14219484 0.00000000
C 20.23500000 14.14219484 0.00000000
C 20.94500000 12.91243877 0.00000000
C 18.10500000 15.37195092 0.00000000
C 18.81500000 16.60170699 0.00000000
C 20.23500000 16.60170699 0.00000000
C 20.94500000 15.37195092 0.00000000
C 18.10500000 17.83146306 0.00000000
C 18.81500000 19.06121914 0.00000000
C 20.23500000 19.06121914 0.00000000
C 20.94500000 17.83146306 0.00000000
C 18.10500000 20.29097521 0.00000000
C 18.81500000 21.52073128 0.00000000
C 20.23500000 21.52073128 0.00000000
C 20.94500000 20.29097521 0.00000000
C 18.10500000 22.75048736 0.00000000
C 18.81500000 23.98024343 0.00000000
C 20.23500000 23.98024343 0.00000000
C 20.94500000 22.75048736 0.00000000
C 22.36500000 0.61487804 0.00000000
C 23.07500000 1.84463411 0.00000000
C 24.49500000 1.84463411 0.00000000
C 25.20500000 0.61487804 0.00000000
C 22.36500000 3.07439018 0.00000000
C 23.07500000 4.30414626 0.00000000
C 24.49500000 4.30414626 0.00000000
C 25.20500000 3.07439018 0.00000000
C 22.36500000 5.53390233 0.00000000
C 23.07500000 6.76365840 0.00000000
C 24.49500000 6.76365840 0.00000000
C 25.20500000 5.53390233 0.00000000
C 22.36500000 7.99341448 0.00000000
C 23.07500000 9.22317055 0.00000000
C 24.49500000 9.22317055 0.00000000
C 25.20500000 7.99341448 0.00000000
C 22.36500000 10.45292662 0.00000000
C 23.07500000 11.68268270 0.00000000
C 24.49500000 11.68268270 0.00000000
C 25.20500000 10.45292662 0.00000000
C 22.36500000 12.91243877 0.00000000
C 23.07500000 14.14219484 0.00000000
C 24.49500000 14.14219484 0.00000000
C 25.20500000 12.91243877 0.00000000
C 22.36500000 15.37195092 0.00000000
C 23.07500000 16.60170699 0.00000000
C 24.49500000 16.60170699 0.00000000
C 25.20500000 15.37195092 0.00000000
C 22.36500000 17.83146306 0.00000000
C 23.07500000 19.06121914 0.00000000
C 24.49500000 19.06121914 0.00000000
C 25.20500000 17.83146306 0.00000000
C 22.36500000 20.29097521 0.00000000
C 23.07500000 21.52073128 0.00000000
C 24.49500000 21.52073128 0.00000000
C 25.20500000 20.29097521 0.00000000
C 22.36500000 22.75048736 0.00000000
C 23.07500000 23.98024343 0.00000000
C 24.49500000 23.98024343 0.00000000
C 25.20500000 22.75048736 0.00000000
C 26.62500000 0.61487804 0.00000000
C 27.33500000 1.84463411 0.00000000
C 28.75500000 1.84463411 0.00000000
C 29.46500000 0.61487804 0.00000000
C 26.62500000 3.07439018 0.00000000
C 27.33500000 4.30414626 0.00000000
C 28.75500000 4.30414626 0.00000000
C 29.46500000 3.07439018 0.00000000
C 26.62500000 5.53390233 0.00000000
C 27.33500000 6.76365840 0.00000000
C 28.75500000 6.76365840 0.00000000
C 29.46500000 5.53390233 0.00000000
C 26.62500000 7.99341448 0.00000000
C 27.33500000 9.22317055 0.00000000
C 28.75500000 9.22317055 0.00000000
C 29.46500000 7.99341448 0.00000000
C 26.62500000 10.45292662 0.00000000
C 27.33500000 11.68268270 0.00000000
C 28.75500000 11.68268270 0.00000000
C 29.46500000 10.45292662 0.00000000
C 26.62500000 12.91243877 0.00000000
C 27.33500000 14.14219484 0.00000000
C 28.75500000 14.14219484 0.00000000
C 29.46500000 12.91243877 0.00000000
C 26.62500000 15.37195092 0.00000000
C 27.33500000 16.60170699 0.00000000
C 28.75500000 16.60170699 0.00000000
C 29.46500000 15.37195092 0.00000000
C 26.62500000 17.83146306 0.00000000
C 27.33500000 19.06121914 0.00000000
C 28.75500000 19.06121914 0.00000000
C 29.46500000 17.83146306 0.00000000
C 26.62500000 20.29097521 0.00000000
C 27.33500000 21.52073128 0.00000000
C 28.75500000 21.52073128 0.00000000
C 29.46500000 20.29097521 0.00000000
C 26.62500000 22.75048736 0.00000000
C 27.33500000 23.98024343 0.00000000
C 28.75500000 23.98024343 0.00000000
C 29.46500000 22.75048736 0.00000000
C 30.88500000 0.61487804 0.00000000
C 31.59500000 1.84463411 0.00000000
C 33.01500000 1.84463411 0.00000000
C 33.72500000 0.61487804 0.00000000
C 30.88500000 3.07439018 0.00000000
C 31.59500000 4.30414626 0.00000000
C 33.01500000 4.30414626 0.00000000
C 33.72500000 3.07439018 0.00000000
C 30.88500000 5.53390233 0.00000000
C 31.59500000 6.76365840 0.00000000
C 33.01500000 6.76365840 0.00000000
C 33.72500000 5.53390233 0.00000000
C 30.88500000 7.99341448 0.00000000
C 31.59500000 9.22317055 0.00000000
C 33.01500000 9.22317055 0.00000000
C 33.72500000 7.99341448 0.00000000
C 30.88500000 10.45292662 0.00000000
C 31.59500000 11.68268270 0.00000000
C 33.01500000 11.68268270 0.00000000
C 33.72500000 10.45292662 0.00000000
C 30.88500000 12.91243877 0.00000000
C 31.59500000 14.14219484 0.00000000
C 33.01500000 14.14219484 0.00000000
C 33.72500000 12.91243877 0.00000000
C 30.88500000 15.37195092 0.00000000
C 31.59500000 16.60170699 0.00000000
C 33.01500000 16.60170699 0.00000000
C 33.72500000 15.37195092 0.00000000
C 30.88500000 17.83146306 0.00000000
C 31.59500000 19.06121914 0.00000000
C 33.01500000 19.06121914 0.00000000
C 33.72500000 17.83146306 0.00000000
C 30.88500000 20.29097521 0.00000000
C 31.59500000 21.52073128 0.00000000
C 33.01500000 21.52073128 0.00000000
C 33.72500000 20.29097521 0.00000000
C 30.88500000 22.75048736 0.00000000
C 31.59500000 23.98024343 0.00000000
C 33.01500000 23.98024343 0.00000000
C 33.72500000 22.75048736 0.00000000
C 35.14500000 0.61487804 0.00000000
C 35.85500000 1.84463411 0.00000000
C 37.27500000 1.84463411 0.00000000
C 37.98500000 0.61487804 0.00000000
C 35.14500000 3.07439018 0.00000000
C 35.85500000 4.30414626 0.00000000
C 37.27500000 4.30414626 0.00000000
C 37.98500000 3.07439018 0.00000000
C 35.14500000 5.53390233 0.00000000
C 35.85500000 6.76365840 0.00000000
C 37.27500000 6.76365840 0.00000000
C 37.98500000 5.53390233 0.00000000
C 35.14500000 7.99341448 0.00000000
C 35.85500000 9.22317055 0.00000000
C 37.27500000 9.22317055 0.00000000
C 37.98500000 7.99341448 0.00000000
C 35.14500000 10.45292662 0.00000000
C 35.85500000 11.68268270 0.00000000
C 37.27500000 11.68268270 0.00000000
C 37.98500000 10.45292662 0.00000000
C 35.14500000 12.91243877 0.00000000
C 35.85500000 14.14219484 0.00000000
C 37.27500000 14.14219484 0.00000000
C 37.98500000 12.91243877 0.00000000
C 35.14500000 15.37195092 0.00000000
C 35.85500000 16.60170699 0.00000000
C 37.27500000 16.60170699 0.00000000
C 37.98500000 15.37195092 0.00000000
C 35.14500000 17.83146306 0.00000000
C 35.85500000 19.06121914 0.00000000
C 37.27500000 19.06121914 0.00000000
C 37.98500000 17.83146306 0.00000000
C 35.14500000 20.29097521 0.00000000
C 35.85500000 21.52073128 0.00000000
C 37.27500000 21.52073128 0.00000000
C 37.98500000 20.29097521 0.00000000
C 35.14500000 22.75048736 0.00000000
C 35.85500000 23.98024343 0.00000000
C 37.27500000 23.98024343 0.00000000
C 37.98500000 22.75048736 0.00000000
C 39.40500000 0.61487804 0.00000000
C 40.11500000 1.84463411 0.00000000
C 41.53500000 1.84463411 0.00000000
C 42.24500000 0.61487804 0.00000000
C 39.40500000 3.07439018 0.00000000
C 40.11500000 4.30414626 0.00000000
C 41.53500000 4.30414626 0.00000000
C 42.24500000 3.07439018 0.00000000
C 39.40500000 5.53390233 0.00000000
C 40.11500000 6.76365840 0.00000000
C 41.53500000 6.76365840 0.00000000
C 42.24500000 5.53390233 0.00000000
C 39.40500000 7.99341448 0.00000000
C 40.11500000 9.22317055 0.00000000
C 41.53500000 9.22317055 0.00000000
C 42.24500000 7.99341448 0.00000000
C 39.40500000 10.45292662 0.00000000
C 40.11500000 11.68268270 0.00000000
C 41.53500000 11.68268270 0.00000000
C 42.24500000 10.45292662 0.00000000
C 39.40500000 12.91243877 0.00000000
C 40.11500000 14.14219484 0.00000000
C 41.53500000 14.14219484 0.00000000
C 42.24500000 12.91243877 0.00000000
C 39.40500000 15.37195092 0.00000000
C 40.11500000 16.60170699 0.00000000
C 41.53500000 16.60170699 0.00000000
C 42.24500000 15.37195092 0.00000000
C 39.40500000 17.83146306 0.00000000
C 40.11500000 19.06121914 0.00000000
C 41.53500000 19.06121914 0.00000000
C 42.24500000 17.83146306 0.00000000
C 39.40500000 20.29097521 0.00000000
C 40.11500000 21.52073128 0.00000000
C 41.53500000 21.52073128 0.00000000
C 42.24500000 20.29097521 0.00000000
C 39.40500000 22.75048736 0.00000000
C 40.11500000 23.98024343 0.00000000
C 41.53500000 23.98024343 0.00000000
C 42.24500000 22.75048736 0.00000000
