800 
Atoms
C 0.00000000 0.00000000 -10.35000000
C 1.25573684 0.72500000 -10.35000000
C 1.25573684 0.72500000 -6.90000000
C 2.51147367 1.45000000 -6.90000000
C 0.00000000 0.00000000 -3.45000000
C 1.25573684 0.72500000 -3.45000000
C 1.25573684 0.72500000 0.00000000
C 2.51147367 1.45000000 0.00000000
C 1.25573684 2.17500000 -10.35000000
C 2.51147367 2.90000000 -10.35000000
C 2.51147367 2.90000000 -6.90000000
C 3.76721051 3.62500000 -6.90000000
C 1.25573684 2.17500000 -3.45000000
C 2.51147367 2.90000000 -3.45000000
C 2.51147367 2.90000000 0.00000000
C 3.76721051 3.62500000 0.00000000
C 2.51147367 4.35000000 -10.35000000
C 3.76721051 5.07500000 -10.35000000
C 3.76721051 5.07500000 -6.90000000
C 5.02294734 5.80000000 -6.90000000
C 2.51147367 4.35000000 -3.45000000
C 3.76721051 5.07500000 -3.45000000
C 3.76721051 5.07500000 0.00000000
C 5.02294734 5.80000000 0.00000000
C 3.76721051 6.52500000 -10.35000000
C 5.02294734 7.25000000 -10.35000000
C 5.02294734 7.25000000 -6.90000000
C 6.27868418 7.97500000 -6.90000000
C 3.76721051 6.52500000 -3.45000000
C 5.02294734 7.25000000 -3.45000000
C 5.02294734 7.25000000 0.00000000
C 6.27868418 7.97500000 0.00000000
C 5.02294734 8.70000000 -10.35000000
C 6.27868418 9.42500000 -10.35000000
C 6.27868418 9.42500000 -6.90000000
C 7.53442101 10.15000000 -6.90000000
C 5.02294734 8.70000000 -3.45000000
C 6.27868418 9.42500000 -3.45000000
C 6.27868418 9.42500000 0.00000000
C 7.53442101 10.15000000 0.00000000
C 6.27868418 10.87500000 -10.35000000
C 7.53442101 11.60000000 -10.35000000
C 7.53442101 11.60000000 -6.90000000
C 8.79015785 12.32500000 -6.90000000
C 6.27868418 10.87500000 -3.45000000
C 7.53442101 11.60000000 -3.45000000
C 7.53442101 11.60000000 0.00000000
C 8.79015785 12.32500000 0.00000000
C 7.53442101 13.05000000 -10.35000000
C 8.79015785 13.77500000 -10.35000000
C 8.79015785 13.77500000 -6.90000000
C 10.04589468 14.50000000 -6.90000000
C 7.53442101 13.05000000 -3.45000000
C 8.79015785 13.77500000 -3.45000000
C 8.79015785 13.77500000 0.00000000
C 10.04589468 14.50000000 0.00000000
C 8.79015785 15.22500000 -10.35000000
C 10.04589468 15.95000000 -10.35000000
C 10.04589468 15.95000000 -6.90000000
C 11.30163152 16.67500000 -6.90000000
C 8.79015785 15.22500000 -3.45000000
C 10.04589468 15.95000000 -3.45000000
C 10.04589468 15.95000000 0.00000000
C 11.30163152 16.67500000 0.00000000
C 10.04589468 17.40000000 -10.35000000
C 11.30163152 18.12500000 -10.35000000
C 11.30163152 18.12500000 -6.90000000
C 12.55736835 18.85000000 -6.90000000
C 10.04589468 17.40000000 -3.45000000
C 11.30163152 18.12500000 -3.45000000
C 11.30163152 18.12500000 0.00000000
C 12.55736835 18.85000000 0.00000000
C 11.30163152 19.57500000 -10.35000000
C 12.55736835 20.30000000 -10.35000000
C 12.55736835 20.30000000 -6.90000000
C 13.81310519 21.02500000 -6.90000000
C 11.30163152 19.57500000 -3.45000000
C 12.55736835 20.30000000 -3.45000000
C 12.55736835 20.30000000 0.00000000
C 13.81310519 21.02500000 0.00000000
C 2.51147367 0.00000000 -10.35000000
C 3.76721051 0.72500000 -10.35000000
C 3.76721051 0.72500000 -6.90000000
C 5.02294734 1.45000000 -6.90000000
C 2.51147367 0.00000000 -3.45000000
C 3.76721051 0.72500000 -3.45000000
C 3.76721051 0.72500000 0.00000000
C 5.02294734 1.45000000 0.00000000
C 3.76721051 2.17500000 -10.35000000
C 5.02294734 2.90000000 -10.35000000
C 5.02294734 2.90000000 -6.90000000
C 6.27868418 3.62500000 -6.90000000
C 3.76721051 2.17500000 -3.45000000
C 5.02294734 2.90000000 -3.45000000
C 5.02294734 2.90000000 0.00000000
C 6.27868418 3.62500000 0.00000000
C 5.02294734 4.35000000 -10.35000000
C 6.27868418 5.07500000 -10.35000000
C 6.27868418 5.07500000 -6.90000000
C 7.53442101 5.80000000 -6.90000000
C 5.02294734 4.35000000 -3.45000000
C 6.27868418 5.07500000 -3.45000000
C 6.27868418 5.07500000 0.00000000
C 7.53442101 5.80000000 0.00000000
C 6.27868418 6.52500000 -10.35000000
C 7.53442101 7.25000000 -10.35000000
C 7.53442101 7.25000000 -6.90000000
C 8.79015785 7.97500000 -6.90000000
C 6.27868418 6.52500000 -3.45000000
C 7.53442101 7.25000000 -3.45000000
C 7.53442101 7.25000000 0.00000000
C 8.79015785 7.97500000 0.00000000
C 7.53442101 8.70000000 -10.35000000
C 8.79015785 9.42500000 -10.35000000
C 8.79015785 9.42500000 -6.90000000
C 10.04589468 10.15000000 -6.90000000
C 7.53442101 8.70000000 -3.45000000
C 8.79015785 9.42500000 -3.45000000
C 8.79015785 9.42500000 0.00000000
C 10.04589468 10.15000000 0.00000000
C 8.79015785 10.87500000 -10.35000000
C 10.04589468 11.60000000 -10.35000000
C 10.04589468 11.60000000 -6.90000000
C 11.30163152 12.32500000 -6.90000000
C 8.79015785 10.87500000 -3.45000000
C 10.04589468 11.60000000 -3.45000000
C 10.04589468 11.60000000 0.00000000
C 11.30163152 12.32500000 0.00000000
C 10.04589468 13.05000000 -10.35000000
C 11.30163152 13.77500000 -10.35000000
C 11.30163152 13.77500000 -6.90000000
C 12.55736835 14.50000000 -6.90000000
C 10.04589468 13.05000000 -3.45000000
C 11.30163152 13.77500000 -3.45000000
C 11.30163152 13.77500000 0.00000000
C 12.55736835 14.50000000 0.00000000
C 11.30163152 15.22500000 -10.35000000
C 12.55736835 15.95000000 -10.35000000
C 12.55736835 15.95000000 -6.90000000
C 13.81310519 16.67500000 -6.90000000
C 11.30163152 15.22500000 -3.45000000
C 12.55736835 15.95000000 -3.45000000
C 12.55736835 15.95000000 0.00000000
C 13.81310519 16.67500000 0.00000000
C 12.55736835 17.40000000 -10.35000000
C 13.81310519 18.12500000 -10.35000000
C 13.81310519 18.12500000 -6.90000000
C 15.06884203 18.85000000 -6.90000000
C 12.55736835 17.40000000 -3.45000000
C 13.81310519 18.12500000 -3.45000000
C 13.81310519 18.12500000 0.00000000
C 15.06884203 18.85000000 0.00000000
C 13.81310519 19.57500000 -10.35000000
C 15.06884203 20.30000000 -10.35000000
C 15.06884203 20.30000000 -6.90000000
C 16.32457886 21.02500000 -6.90000000
C 13.81310519 19.57500000 -3.45000000
C 15.06884203 20.30000000 -3.45000000
C 15.06884203 20.30000000 0.00000000
C 16.32457886 21.02500000 0.00000000
C 5.02294734 0.00000000 -10.35000000
C 6.27868418 0.72500000 -10.35000000
C 6.27868418 0.72500000 -6.90000000
C 7.53442101 1.45000000 -6.90000000
C 5.02294734 0.00000000 -3.45000000
C 6.27868418 0.72500000 -3.45000000
C 6.27868418 0.72500000 0.00000000
C 7.53442101 1.45000000 0.00000000
C 6.27868418 2.17500000 -10.35000000
C 7.53442101 2.90000000 -10.35000000
C 7.53442101 2.90000000 -6.90000000
C 8.79015785 3.62500000 -6.90000000
C 6.27868418 2.17500000 -3.45000000
C 7.53442101 2.90000000 -3.45000000
C 7.53442101 2.90000000 0.00000000
C 8.79015785 3.62500000 0.00000000
C 7.53442101 4.35000000 -10.35000000
C 8.79015785 5.07500000 -10.35000000
C 8.79015785 5.07500000 -6.90000000
C 10.04589468 5.80000000 -6.90000000
C 7.53442101 4.35000000 -3.45000000
C 8.79015785 5.07500000 -3.45000000
C 8.79015785 5.07500000 0.00000000
C 10.04589468 5.80000000 0.00000000
C 8.79015785 6.52500000 -10.35000000
C 10.04589468 7.25000000 -10.35000000
C 10.04589468 7.25000000 -6.90000000
C 11.30163152 7.97500000 -6.90000000
C 8.79015785 6.52500000 -3.45000000
C 10.04589468 7.25000000 -3.45000000
C 10.04589468 7.25000000 0.00000000
C 11.30163152 7.97500000 0.00000000
C 10.04589468 8.70000000 -10.35000000
C 11.30163152 9.42500000 -10.35000000
C 11.30163152 9.42500000 -6.90000000
C 12.55736835 10.15000000 -6.90000000
C 10.04589468 8.70000000 -3.45000000
C 11.30163152 9.42500000 -3.45000000
C 11.30163152 9.42500000 0.00000000
C 12.55736835 10.15000000 0.00000000
C 11.30163152 10.87500000 -10.35000000
C 12.55736835 11.60000000 -10.35000000
C 12.55736835 11.60000000 -6.90000000
C 13.81310519 12.32500000 -6.90000000
C 11.30163152 10.87500000 -3.45000000
C 12.55736835 11.60000000 -3.45000000
C 12.55736835 11.60000000 0.00000000
C 13.81310519 12.32500000 0.00000000
C 12.55736835 13.05000000 -10.35000000
C 13.81310519 13.77500000 -10.35000000
C 13.81310519 13.77500000 -6.90000000
C 15.06884203 14.50000000 -6.90000000
C 12.55736835 13.05000000 -3.45000000
C 13.81310519 13.77500000 -3.45000000
C 13.81310519 13.77500000 0.00000000
C 15.06884203 14.50000000 0.00000000
C 13.81310519 15.22500000 -10.35000000
C 15.06884203 15.95000000 -10.35000000
C 15.06884203 15.95000000 -6.90000000
C 16.32457886 16.67500000 -6.90000000
C 13.81310519 15.22500000 -3.45000000
C 15.06884203 15.95000000 -3.45000000
C 15.06884203 15.95000000 0.00000000
C 16.32457886 16.67500000 0.00000000
C 15.06884203 17.40000000 -10.35000000
C 16.32457886 18.12500000 -10.35000000
C 16.32457886 18.12500000 -6.90000000
C 17.58031570 18.85000000 -6.90000000
C 15.06884203 17.40000000 -3.45000000
C 16.32457886 18.12500000 -3.45000000
C 16.32457886 18.12500000 0.00000000
C 17.58031570 18.85000000 0.00000000
C 16.32457886 19.57500000 -10.35000000
C 17.58031570 20.30000000 -10.35000000
C 17.58031570 20.30000000 -6.90000000
C 18.83605253 21.02500000 -6.90000000
C 16.32457886 19.57500000 -3.45000000
C 17.58031570 20.30000000 -3.45000000
C 17.58031570 20.30000000 0.00000000
C 18.83605253 21.02500000 0.00000000
C 7.53442101 0.00000000 -10.35000000
C 8.79015785 0.72500000 -10.35000000
C 8.79015785 0.72500000 -6.90000000
C 10.04589468 1.45000000 -6.90000000
C 7.53442101 0.00000000 -3.45000000
C 8.79015785 0.72500000 -3.45000000
C 8.79015785 0.72500000 0.00000000
C 10.04589468 1.45000000 0.00000000
C 8.79015785 2.17500000 -10.35000000
C 10.04589468 2.90000000 -10.35000000
C 10.04589468 2.90000000 -6.90000000
C 11.30163152 3.62500000 -6.90000000
C 8.79015785 2.17500000 -3.45000000
C 10.04589468 2.90000000 -3.45000000
C 10.04589468 2.90000000 0.00000000
C 11.30163152 3.62500000 0.00000000
C 10.04589468 4.35000000 -10.35000000
C 11.30163152 5.07500000 -10.35000000
C 11.30163152 5.07500000 -6.90000000
C 12.55736835 5.80000000 -6.90000000
C 10.04589468 4.35000000 -3.45000000
C 11.30163152 5.07500000 -3.45000000
C 11.30163152 5.07500000 0.00000000
C 12.55736835 5.80000000 0.00000000
C 11.30163152 6.52500000 -10.35000000
C 12.55736835 7.25000000 -10.35000000
C 12.55736835 7.25000000 -6.90000000
C 13.81310519 7.97500000 -6.90000000
C 11.30163152 6.52500000 -3.45000000
C 12.55736835 7.25000000 -3.45000000
C 12.55736835 7.25000000 0.00000000
C 13.81310519 7.97500000 0.00000000
C 12.55736835 8.70000000 -10.35000000
C 13.81310519 9.42500000 -10.35000000
C 13.81310519 9.42500000 -6.90000000
C 15.06884203 10.15000000 -6.90000000
C 12.55736835 8.70000000 -3.45000000
C 13.81310519 9.42500000 -3.45000000
C 13.81310519 9.42500000 0.00000000
C 15.06884203 10.15000000 0.00000000
C 13.81310519 10.87500000 -10.35000000
C 15.06884203 11.60000000 -10.35000000
C 15.06884203 11.60000000 -6.90000000
C 16.32457886 12.32500000 -6.90000000
C 13.81310519 10.87500000 -3.45000000
C 15.06884203 11.60000000 -3.45000000
C 15.06884203 11.60000000 0.00000000
C 16.32457886 12.32500000 0.00000000
C 15.06884203 13.05000000 -10.35000000
C 16.32457886 13.77500000 -10.35000000
C 16.32457886 13.77500000 -6.90000000
C 17.58031570 14.50000000 -6.90000000
C 15.06884203 13.05000000 -3.45000000
C 16.32457886 13.77500000 -3.45000000
C 16.32457886 13.77500000 0.00000000
C 17.58031570 14.50000000 0.00000000
C 16.32457886 15.22500000 -10.35000000
C 17.58031570 15.95000000 -10.35000000
C 17.58031570 15.95000000 -6.90000000
C 18.83605253 16.67500000 -6.90000000
C 16.32457886 15.22500000 -3.45000000
C 17.58031570 15.95000000 -3.45000000
C 17.58031570 15.95000000 0.00000000
C 18.83605253 16.67500000 0.00000000
C 17.58031570 17.40000000 -10.35000000
C 18.83605253 18.12500000 -10.35000000
C 18.83605253 18.12500000 -6.90000000
C 20.09178937 18.85000000 -6.90000000
C 17.58031570 17.40000000 -3.45000000
C 18.83605253 18.12500000 -3.45000000
C 18.83605253 18.12500000 0.00000000
C 20.09178937 18.85000000 0.00000000
C 18.83605253 19.57500000 -10.35000000
C 20.09178937 20.30000000 -10.35000000
C 20.09178937 20.30000000 -6.90000000
C 21.34752620 21.02500000 -6.90000000
C 18.83605253 19.57500000 -3.45000000
C 20.09178937 20.30000000 -3.45000000
C 20.09178937 20.30000000 0.00000000
C 21.34752620 21.02500000 0.00000000
C 10.04589468 0.00000000 -10.35000000
C 11.30163152 0.72500000 -10.35000000
C 11.30163152 0.72500000 -6.90000000
C 12.55736835 1.45000000 -6.90000000
C 10.04589468 0.00000000 -3.45000000
C 11.30163152 0.72500000 -3.45000000
C 11.30163152 0.72500000 0.00000000
C 12.55736835 1.45000000 0.00000000
C 11.30163152 2.17500000 -10.35000000
C 12.55736835 2.90000000 -10.35000000
C 12.55736835 2.90000000 -6.90000000
C 13.81310519 3.62500000 -6.90000000
C 11.30163152 2.17500000 -3.45000000
C 12.55736835 2.90000000 -3.45000000
C 12.55736835 2.90000000 0.00000000
C 13.81310519 3.62500000 0.00000000
C 12.55736835 4.35000000 -10.35000000
C 13.81310519 5.07500000 -10.35000000
C 13.81310519 5.07500000 -6.90000000
C 15.06884203 5.80000000 -6.90000000
C 12.55736835 4.35000000 -3.45000000
C 13.81310519 5.07500000 -3.45000000
C 13.81310519 5.07500000 0.00000000
C 15.06884203 5.80000000 0.00000000
C 13.81310519 6.52500000 -10.35000000
C 15.06884203 7.25000000 -10.35000000
C 15.06884203 7.25000000 -6.90000000
C 16.32457886 7.97500000 -6.90000000
C 13.81310519 6.52500000 -3.45000000
C 15.06884203 7.25000000 -3.45000000
C 15.06884203 7.25000000 0.00000000
C 16.32457886 7.97500000 0.00000000
C 15.06884203 8.70000000 -10.35000000
C 16.32457886 9.42500000 -10.35000000
C 16.32457886 9.42500000 -6.90000000
C 17.58031570 10.15000000 -6.90000000
C 15.06884203 8.70000000 -3.45000000
C 16.32457886 9.42500000 -3.45000000
C 16.32457886 9.42500000 0.00000000
C 17.58031570 10.15000000 0.00000000
C 16.32457886 10.87500000 -10.35000000
C 17.58031570 11.60000000 -10.35000000
C 17.58031570 11.60000000 -6.90000000
C 18.83605253 12.32500000 -6.90000000
C 16.32457886 10.87500000 -3.45000000
C 17.58031570 11.60000000 -3.45000000
C 17.58031570 11.60000000 0.00000000
C 18.83605253 12.32500000 0.00000000
C 17.58031570 13.05000000 -10.35000000
C 18.83605253 13.77500000 -10.35000000
C 18.83605253 13.77500000 -6.90000000
C 20.09178937 14.50000000 -6.90000000
C 17.58031570 13.05000000 -3.45000000
C 18.83605253 13.77500000 -3.45000000
C 18.83605253 13.77500000 0.00000000
C 20.09178937 14.50000000 0.00000000
C 18.83605253 15.22500000 -10.35000000
C 20.09178937 15.95000000 -10.35000000
C 20.09178937 15.95000000 -6.90000000
C 21.34752620 16.67500000 -6.90000000
C 18.83605253 15.22500000 -3.45000000
C 20.09178937 15.95000000 -3.45000000
C 20.09178937 15.95000000 0.00000000
C 21.34752620 16.67500000 0.00000000
C 20.09178937 17.40000000 -10.35000000
C 21.34752620 18.12500000 -10.35000000
C 21.34752620 18.12500000 -6.90000000
C 22.60326304 18.85000000 -6.90000000
C 20.09178937 17.40000000 -3.45000000
C 21.34752620 18.12500000 -3.45000000
C 21.34752620 18.12500000 0.00000000
C 22.60326304 18.85000000 0.00000000
C 21.34752620 19.57500000 -10.35000000
C 22.60326304 20.30000000 -10.35000000
C 22.60326304 20.30000000 -6.90000000
C 23.85899987 21.02500000 -6.90000000
C 21.34752620 19.57500000 -3.45000000
C 22.60326304 20.30000000 -3.45000000
C 22.60326304 20.30000000 0.00000000
C 23.85899987 21.02500000 0.00000000
C 12.55736835 0.00000000 -10.35000000
C 13.81310519 0.72500000 -10.35000000
C 13.81310519 0.72500000 -6.90000000
C 15.06884203 1.45000000 -6.90000000
C 12.55736835 0.00000000 -3.45000000
C 13.81310519 0.72500000 -3.45000000
C 13.81310519 0.72500000 0.00000000
C 15.06884203 1.45000000 0.00000000
C 13.81310519 2.17500000 -10.35000000
C 15.06884203 2.90000000 -10.35000000
C 15.06884203 2.90000000 -6.90000000
C 16.32457886 3.62500000 -6.90000000
C 13.81310519 2.17500000 -3.45000000
C 15.06884203 2.90000000 -3.45000000
C 15.06884203 2.90000000 0.00000000
C 16.32457886 3.62500000 0.00000000
C 15.06884203 4.35000000 -10.35000000
C 16.32457886 5.07500000 -10.35000000
C 16.32457886 5.07500000 -6.90000000
C 17.58031570 5.80000000 -6.90000000
C 15.06884203 4.35000000 -3.45000000
C 16.32457886 5.07500000 -3.45000000
C 16.32457886 5.07500000 0.00000000
C 17.58031570 5.80000000 0.00000000
C 16.32457886 6.52500000 -10.35000000
C 17.58031570 7.25000000 -10.35000000
C 17.58031570 7.25000000 -6.90000000
C 18.83605253 7.97500000 -6.90000000
C 16.32457886 6.52500000 -3.45000000
C 17.58031570 7.25000000 -3.45000000
C 17.58031570 7.25000000 0.00000000
C 18.83605253 7.97500000 0.00000000
C 17.58031570 8.70000000 -10.35000000
C 18.83605253 9.42500000 -10.35000000
C 18.83605253 9.42500000 -6.90000000
C 20.09178937 10.15000000 -6.90000000
C 17.58031570 8.70000000 -3.45000000
C 18.83605253 9.42500000 -3.45000000
C 18.83605253 9.42500000 0.00000000
C 20.09178937 10.15000000 0.00000000
C 18.83605253 10.87500000 -10.35000000
C 20.09178937 11.60000000 -10.35000000
C 20.09178937 11.60000000 -6.90000000
C 21.34752620 12.32500000 -6.90000000
C 18.83605253 10.87500000 -3.45000000
C 20.09178937 11.60000000 -3.45000000
C 20.09178937 11.60000000 0.00000000
C 21.34752620 12.32500000 0.00000000
C 20.09178937 13.05000000 -10.35000000
C 21.34752620 13.77500000 -10.35000000
C 21.34752620 13.77500000 -6.90000000
C 22.60326304 14.50000000 -6.90000000
C 20.09178937 13.05000000 -3.45000000
C 21.34752620 13.77500000 -3.45000000
C 21.34752620 13.77500000 0.00000000
C 22.60326304 14.50000000 0.00000000
C 21.34752620 15.22500000 -10.35000000
C 22.60326304 15.95000000 -10.35000000
C 22.60326304 15.95000000 -6.90000000
C 23.85899987 16.67500000 -6.90000000
C 21.34752620 15.22500000 -3.45000000
C 22.60326304 15.95000000 -3.45000000
C 22.60326304 15.95000000 0.00000000
C 23.85899987 16.67500000 0.00000000
C 22.60326304 17.40000000 -10.35000000
C 23.85899987 18.12500000 -10.35000000
C 23.85899987 18.12500000 -6.90000000
C 25.11473671 18.85000000 -6.90000000
C 22.60326304 17.40000000 -3.45000000
C 23.85899987 18.12500000 -3.45000000
C 23.85899987 18.12500000 0.00000000
C 25.11473671 18.85000000 0.00000000
C 23.85899987 19.57500000 -10.35000000
C 25.11473671 20.30000000 -10.35000000
C 25.11473671 20.30000000 -6.90000000
C 26.37047355 21.02500000 -6.90000000
C 23.85899987 19.57500000 -3.45000000
C 25.11473671 20.30000000 -3.45000000
C 25.11473671 20.30000000 0.00000000
C 26.37047355 21.02500000 0.00000000
C 15.06884203 0.00000000 -10.35000000
C 16.32457886 0.72500000 -10.35000000
C 16.32457886 0.72500000 -6.90000000
C 17.58031570 1.45000000 -6.90000000
C 15.06884203 0.00000000 -3.45000000
C 16.32457886 0.72500000 -3.45000000
C 16.32457886 0.72500000 0.00000000
C 17.58031570 1.45000000 0.00000000
C 16.32457886 2.17500000 -10.35000000
C 17.58031570 2.90000000 -10.35000000
C 17.58031570 2.90000000 -6.90000000
C 18.83605253 3.62500000 -6.90000000
C 16.32457886 2.17500000 -3.45000000
C 17.58031570 2.90000000 -3.45000000
C 17.58031570 2.90000000 0.00000000
C 18.83605253 3.62500000 0.00000000
C 17.58031570 4.35000000 -10.35000000
C 18.83605253 5.07500000 -10.35000000
C 18.83605253 5.07500000 -6.90000000
C 20.09178937 5.80000000 -6.90000000
C 17.58031570 4.35000000 -3.45000000
C 18.83605253 5.07500000 -3.45000000
C 18.83605253 5.07500000 0.00000000
C 20.09178937 5.80000000 0.00000000
C 18.83605253 6.52500000 -10.35000000
C 20.09178937 7.25000000 -10.35000000
C 20.09178937 7.25000000 -6.90000000
C 21.34752620 7.97500000 -6.90000000
C 18.83605253 6.52500000 -3.45000000
C 20.09178937 7.25000000 -3.45000000
C 20.09178937 7.25000000 0.00000000
C 21.34752620 7.97500000 0.00000000
C 20.09178937 8.70000000 -10.35000000
C 21.34752620 9.42500000 -10.35000000
C 21.34752620 9.42500000 -6.90000000
C 22.60326304 10.15000000 -6.90000000
C 20.09178937 8.70000000 -3.45000000
C 21.34752620 9.42500000 -3.45000000
C 21.34752620 9.42500000 0.00000000
C 22.60326304 10.15000000 0.00000000
C 21.34752620 10.87500000 -10.35000000
C 22.60326304 11.60000000 -10.35000000
C 22.60326304 11.60000000 -6.90000000
C 23.85899987 12.32500000 -6.90000000
C 21.34752620 10.87500000 -3.45000000
C 22.60326304 11.60000000 -3.45000000
C 22.60326304 11.60000000 0.00000000
C 23.85899987 12.32500000 0.00000000
C 22.60326304 13.05000000 -10.35000000
C 23.85899987 13.77500000 -10.35000000
C 23.85899987 13.77500000 -6.90000000
C 25.11473671 14.50000000 -6.90000000
C 22.60326304 13.05000000 -3.45000000
C 23.85899987 13.77500000 -3.45000000
C 23.85899987 13.77500000 0.00000000
C 25.11473671 14.50000000 0.00000000
C 23.85899987 15.22500000 -10.35000000
C 25.11473671 15.95000000 -10.35000000
C 25.11473671 15.95000000 -6.90000000
C 26.37047355 16.67500000 -6.90000000
C 23.85899987 15.22500000 -3.45000000
C 25.11473671 15.95000000 -3.45000000
C 25.11473671 15.95000000 0.00000000
C 26.37047355 16.67500000 0.00000000
C 25.11473671 17.40000000 -10.35000000
C 26.37047355 18.12500000 -10.35000000
C 26.37047355 18.12500000 -6.90000000
C 27.62621038 18.85000000 -6.90000000
C 25.11473671 17.40000000 -3.45000000
C 26.37047355 18.12500000 -3.45000000
C 26.37047355 18.12500000 0.00000000
C 27.62621038 18.85000000 0.00000000
C 26.37047355 19.57500000 -10.35000000
C 27.62621038 20.30000000 -10.35000000
C 27.62621038 20.30000000 -6.90000000
C 28.88194722 21.02500000 -6.90000000
C 26.37047355 19.57500000 -3.45000000
C 27.62621038 20.30000000 -3.45000000
C 27.62621038 20.30000000 0.00000000
C 28.88194722 21.02500000 0.00000000
C 17.58031570 0.00000000 -10.35000000
C 18.83605253 0.72500000 -10.35000000
C 18.83605253 0.72500000 -6.90000000
C 20.09178937 1.45000000 -6.90000000
C 17.58031570 0.00000000 -3.45000000
C 18.83605253 0.72500000 -3.45000000
C 18.83605253 0.72500000 0.00000000
C 20.09178937 1.45000000 0.00000000
C 18.83605253 2.17500000 -10.35000000
C 20.09178937 2.90000000 -10.35000000
C 20.09178937 2.90000000 -6.90000000
C 21.34752620 3.62500000 -6.90000000
C 18.83605253 2.17500000 -3.45000000
C 20.09178937 2.90000000 -3.45000000
C 20.09178937 2.90000000 0.00000000
C 21.34752620 3.62500000 0.00000000
C 20.09178937 4.35000000 -10.35000000
C 21.34752620 5.07500000 -10.35000000
C 21.34752620 5.07500000 -6.90000000
C 22.60326304 5.80000000 -6.90000000
C 20.09178937 4.35000000 -3.45000000
C 21.34752620 5.07500000 -3.45000000
C 21.34752620 5.07500000 0.00000000
C 22.60326304 5.80000000 0.00000000
C 21.34752620 6.52500000 -10.35000000
C 22.60326304 7.25000000 -10.35000000
C 22.60326304 7.25000000 -6.90000000
C 23.85899987 7.97500000 -6.90000000
C 21.34752620 6.52500000 -3.45000000
C 22.60326304 7.25000000 -3.45000000
C 22.60326304 7.25000000 0.00000000
C 23.85899987 7.97500000 0.00000000
C 22.60326304 8.70000000 -10.35000000
C 23.85899987 9.42500000 -10.35000000
C 23.85899987 9.42500000 -6.90000000
C 25.11473671 10.15000000 -6.90000000
C 22.60326304 8.70000000 -3.45000000
C 23.85899987 9.42500000 -3.45000000
C 23.85899987 9.42500000 0.00000000
C 25.11473671 10.15000000 0.00000000
C 23.85899987 10.87500000 -10.35000000
C 25.11473671 11.60000000 -10.35000000
C 25.11473671 11.60000000 -6.90000000
C 26.37047355 12.32500000 -6.90000000
C 23.85899987 10.87500000 -3.45000000
C 25.11473671 11.60000000 -3.45000000
C 25.11473671 11.60000000 0.00000000
C 26.37047355 12.32500000 0.00000000
C 25.11473671 13.05000000 -10.35000000
C 26.37047355 13.77500000 -10.35000000
C 26.37047355 13.77500000 -6.90000000
C 27.62621038 14.50000000 -6.90000000
C 25.11473671 13.05000000 -3.45000000
C 26.37047355 13.77500000 -3.45000000
C 26.37047355 13.77500000 0.00000000
C 27.62621038 14.50000000 0.00000000
C 26.37047355 15.22500000 -10.35000000
C 27.62621038 15.95000000 -10.35000000
C 27.62621038 15.95000000 -6.90000000
C 28.88194722 16.67500000 -6.90000000
C 26.37047355 15.22500000 -3.45000000
C 27.62621038 15.95000000 -3.45000000
C 27.62621038 15.95000000 0.00000000
C 28.88194722 16.67500000 0.00000000
C 27.62621038 17.40000000 -10.35000000
C 28.88194722 18.12500000 -10.35000000
C 28.88194722 18.12500000 -6.90000000
C 30.13768405 18.85000000 -6.90000000
C 27.62621038 17.40000000 -3.45000000
C 28.88194722 18.12500000 -3.45000000
C 28.88194722 18.12500000 0.00000000
C 30.13768405 18.85000000 0.00000000
C 28.88194722 19.57500000 -10.35000000
C 30.13768405 20.30000000 -10.35000000
C 30.13768405 20.30000000 -6.90000000
C 31.39342089 21.02500000 -6.90000000
C 28.88194722 19.57500000 -3.45000000
C 30.13768405 20.30000000 -3.45000000
C 30.13768405 20.30000000 0.00000000
C 31.39342089 21.02500000 0.00000000
C 20.09178937 0.00000000 -10.35000000
C 21.34752620 0.72500000 -10.35000000
C 21.34752620 0.72500000 -6.90000000
C 22.60326304 1.45000000 -6.90000000
C 20.09178937 0.00000000 -3.45000000
C 21.34752620 0.72500000 -3.45000000
C 21.34752620 0.72500000 0.00000000
C 22.60326304 1.45000000 0.00000000
C 21.34752620 2.17500000 -10.35000000
C 22.60326304 2.90000000 -10.35000000
C 22.60326304 2.90000000 -6.90000000
C 23.85899987 3.62500000 -6.90000000
C 21.34752620 2.17500000 -3.45000000
C 22.60326304 2.90000000 -3.45000000
C 22.60326304 2.90000000 0.00000000
C 23.85899987 3.62500000 0.00000000
C 22.60326304 4.35000000 -10.35000000
C 23.85899987 5.07500000 -10.35000000
C 23.85899987 5.07500000 -6.90000000
C 25.11473671 5.80000000 -6.90000000
C 22.60326304 4.35000000 -3.45000000
C 23.85899987 5.07500000 -3.45000000
C 23.85899987 5.07500000 0.00000000
C 25.11473671 5.80000000 0.00000000
C 23.85899987 6.52500000 -10.35000000
C 25.11473671 7.25000000 -10.35000000
C 25.11473671 7.25000000 -6.90000000
C 26.37047355 7.97500000 -6.90000000
C 23.85899987 6.52500000 -3.45000000
C 25.11473671 7.25000000 -3.45000000
C 25.11473671 7.25000000 0.00000000
C 26.37047355 7.97500000 0.00000000
C 25.11473671 8.70000000 -10.35000000
C 26.37047355 9.42500000 -10.35000000
C 26.37047355 9.42500000 -6.90000000
C 27.62621038 10.15000000 -6.90000000
C 25.11473671 8.70000000 -3.45000000
C 26.37047355 9.42500000 -3.45000000
C 26.37047355 9.42500000 0.00000000
C 27.62621038 10.15000000 0.00000000
C 26.37047355 10.87500000 -10.35000000
C 27.62621038 11.60000000 -10.35000000
C 27.62621038 11.60000000 -6.90000000
C 28.88194722 12.32500000 -6.90000000
C 26.37047355 10.87500000 -3.45000000
C 27.62621038 11.60000000 -3.45000000
C 27.62621038 11.60000000 0.00000000
C 28.88194722 12.32500000 0.00000000
C 27.62621038 13.05000000 -10.35000000
C 28.88194722 13.77500000 -10.35000000
C 28.88194722 13.77500000 -6.90000000
C 30.13768405 14.50000000 -6.90000000
C 27.62621038 13.05000000 -3.45000000
C 28.88194722 13.77500000 -3.45000000
C 28.88194722 13.77500000 0.00000000
C 30.13768405 14.50000000 0.00000000
C 28.88194722 15.22500000 -10.35000000
C 30.13768405 15.95000000 -10.35000000
C 30.13768405 15.95000000 -6.90000000
C 31.39342089 16.67500000 -6.90000000
C 28.88194722 15.22500000 -3.45000000
C 30.13768405 15.95000000 -3.45000000
C 30.13768405 15.95000000 0.00000000
C 31.39342089 16.67500000 0.00000000
C 30.13768405 17.40000000 -10.35000000
C 31.39342089 18.12500000 -10.35000000
C 31.39342089 18.12500000 -6.90000000
C 32.64915772 18.85000000 -6.90000000
C 30.13768405 17.40000000 -3.45000000
C 31.39342089 18.12500000 -3.45000000
C 31.39342089 18.12500000 0.00000000
C 32.64915772 18.85000000 0.00000000
C 31.39342089 19.57500000 -10.35000000
C 32.64915772 20.30000000 -10.35000000
C 32.64915772 20.30000000 -6.90000000
C 33.90489456 21.02500000 -6.90000000
C 31.39342089 19.57500000 -3.45000000
C 32.64915772 20.30000000 -3.45000000
C 32.64915772 20.30000000 0.00000000
C 33.90489456 21.02500000 0.00000000
C 22.60326304 0.00000000 -10.35000000
C 23.85899987 0.72500000 -10.35000000
C 23.85899987 0.72500000 -6.90000000
C 25.11473671 1.45000000 -6.90000000
C 22.60326304 0.00000000 -3.45000000
C 23.85899987 0.72500000 -3.45000000
C 23.85899987 0.72500000 0.00000000
C 25.11473671 1.45000000 0.00000000
C 23.85899987 2.17500000 -10.35000000
C 25.11473671 2.90000000 -10.35000000
C 25.11473671 2.90000000 -6.90000000
C 26.37047355 3.62500000 -6.90000000
C 23.85899987 2.17500000 -3.45000000
C 25.11473671 2.90000000 -3.45000000
C 25.11473671 2.90000000 0.00000000
C 26.37047355 3.62500000 0.00000000
C 25.11473671 4.35000000 -10.35000000
C 26.37047355 5.07500000 -10.35000000
C 26.37047355 5.07500000 -6.90000000
C 27.62621038 5.80000000 -6.90000000
C 25.11473671 4.35000000 -3.45000000
C 26.37047355 5.07500000 -3.45000000
C 26.37047355 5.07500000 0.00000000
C 27.62621038 5.80000000 0.00000000
C 26.37047355 6.52500000 -10.35000000
C 27.62621038 7.25000000 -10.35000000
C 27.62621038 7.25000000 -6.90000000
C 28.88194722 7.97500000 -6.90000000
C 26.37047355 6.52500000 -3.45000000
C 27.62621038 7.25000000 -3.45000000
C 27.62621038 7.25000000 0.00000000
C 28.88194722 7.97500000 0.00000000
C 27.62621038 8.70000000 -10.35000000
C 28.88194722 9.42500000 -10.35000000
C 28.88194722 9.42500000 -6.90000000
C 30.13768405 10.15000000 -6.90000000
C 27.62621038 8.70000000 -3.45000000
C 28.88194722 9.42500000 -3.45000000
C 28.88194722 9.42500000 0.00000000
C 30.13768405 10.15000000 0.00000000
C 28.88194722 10.87500000 -10.35000000
C 30.13768405 11.60000000 -10.35000000
C 30.13768405 11.60000000 -6.90000000
C 31.39342089 12.32500000 -6.90000000
C 28.88194722 10.87500000 -3.45000000
C 30.13768405 11.60000000 -3.45000000
C 30.13768405 11.60000000 0.00000000
C 31.39342089 12.32500000 0.00000000
C 30.13768405 13.05000000 -10.35000000
C 31.39342089 13.77500000 -10.35000000
C 31.39342089 13.77500000 -6.90000000
C 32.64915772 14.50000000 -6.90000000
C 30.13768405 13.05000000 -3.45000000
C 31.39342089 13.77500000 -3.45000000
C 31.39342089 13.77500000 0.00000000
C 32.64915772 14.50000000 0.00000000
C 31.39342089 15.22500000 -10.35000000
C 32.64915772 15.95000000 -10.35000000
C 32.64915772 15.95000000 -6.90000000
C 33.90489456 16.67500000 -6.90000000
C 31.39342089 15.22500000 -3.45000000
C 32.64915772 15.95000000 -3.45000000
C 32.64915772 15.95000000 0.00000000
C 33.90489456 16.67500000 0.00000000
C 32.64915772 17.40000000 -10.35000000
C 33.90489456 18.12500000 -10.35000000
C 33.90489456 18.12500000 -6.90000000
C 35.16063139 18.85000000 -6.90000000
C 32.64915772 17.40000000 -3.45000000
C 33.90489456 18.12500000 -3.45000000
C 33.90489456 18.12500000 0.00000000
C 35.16063139 18.85000000 0.00000000
C 33.90489456 19.57500000 -10.35000000
C 35.16063139 20.30000000 -10.35000000
C 35.16063139 20.30000000 -6.90000000
C 36.41636823 21.02500000 -6.90000000
C 33.90489456 19.57500000 -3.45000000
C 35.16063139 20.30000000 -3.45000000
C 35.16063139 20.30000000 0.00000000
C 36.41636823 21.02500000 0.00000000
